   6
cell= 15.00000000 0.00000000 0.00000000 0.00000000 15.00000000 0.00000000 0.00000000 0.00000000 15.00000000  nsc= 1 1 1
O   0.00000000  0.00000000  0.00000000
H   0.75700000  0.58600000  0.00000000
H   -0.75700000  0.58600000  0.00000000
O   0.00000000  3.50000000  0.00000000
H   0.94858123  3.37100911  0.00000000
H   -0.36258123  2.61400911  0.00000000

